<?xml version="1.0" encoding="UTF-8" standalone="yes"?>
<template encoding-version="1.3">
    <description>processes HTTP requests to Get and Set the data NVRJS needs

API routes required:
${
http.request.uri:startsWith('/api/nvrjs/')
:or(${http.request.uri:equals('/api/mediamtx/webhook')})
}</description>
    <groupId>1bae3949-fd0c-1b0c-f69f-6d5df66e8f5d</groupId>
    <name>nvrjs supporting flow</name>
    <snippet>
        <connections>
            <id>351d7ff9-b5a5-3ec5-0000-000000000000</id>
            <parentGroupId>dc5acc8d-93ee-379f-0000-000000000000</parentGroupId>
            <backPressureDataSizeThreshold>1 GB</backPressureDataSizeThreshold>
            <backPressureObjectThreshold>10000</backPressureObjectThreshold>
            <bends>
                <x>2134.325927734375</x>
                <y>188.76132202148438</y>
            </bends>
            <bends>
                <x>2134.325927734375</x>
                <y>284.7613220214844</y>
            </bends>
            <destination>
                <groupId>dc5acc8d-93ee-379f-0000-000000000000</groupId>
                <id>5a64ffa2-747d-35e3-0000-000000000000</id>
                <type>PROCESSOR</type>
            </destination>
            <flowFileExpiration>0 sec</flowFileExpiration>
            <labelIndex>1</labelIndex>
            <loadBalanceCompression>DO_NOT_COMPRESS</loadBalanceCompression>
            <loadBalancePartitionAttribute></loadBalancePartitionAttribute>
            <loadBalanceStatus>LOAD_BALANCE_NOT_CONFIGURED</loadBalanceStatus>
            <loadBalanceStrategy>DO_NOT_LOAD_BALANCE</loadBalanceStrategy>
            <name></name>
            <selectedRelationships>segment complete</selectedRelationships>
            <source>
                <groupId>dc5acc8d-93ee-379f-0000-000000000000</groupId>
                <id>7cda1f97-03d1-3e7a-0000-000000000000</id>
                <type>PROCESSOR</type>
            </source>
            <zIndex>0</zIndex>
        </connections>
        <connections>
            <id>5c3cc208-26b7-34e4-0000-000000000000</id>
            <parentGroupId>dc5acc8d-93ee-379f-0000-000000000000</parentGroupId>
            <backPressureDataSizeThreshold>1 GB</backPressureDataSizeThreshold>
            <backPressureObjectThreshold>10000</backPressureObjectThreshold>
            <bends>
                <x>944.0</x>
                <y>720.6364440917969</y>
            </bends>
            <destination>
                <groupId>dc5acc8d-93ee-379f-0000-000000000000</groupId>
                <id>d5a2a571-8542-3b13-0000-000000000000</id>
                <type>PROCESSOR</type>
            </destination>
            <flowFileExpiration>0 sec</flowFileExpiration>
            <labelIndex>0</labelIndex>
            <loadBalanceCompression>DO_NOT_COMPRESS</loadBalanceCompression>
            <loadBalancePartitionAttribute></loadBalancePartitionAttribute>
            <loadBalanceStatus>LOAD_BALANCE_NOT_CONFIGURED</loadBalanceStatus>
            <loadBalanceStrategy>DO_NOT_LOAD_BALANCE</loadBalanceStrategy>
            <name></name>
            <selectedRelationships>unmatched</selectedRelationships>
            <source>
                <groupId>dc5acc8d-93ee-379f-0000-000000000000</groupId>
                <id>7cda1f97-03d1-3e7a-0000-000000000000</id>
                <type>PROCESSOR</type>
            </source>
            <zIndex>0</zIndex>
        </connections>
        <connections>
            <id>6368e277-0a98-32c8-0000-000000000000</id>
            <parentGroupId>dc5acc8d-93ee-379f-0000-000000000000</parentGroupId>
            <backPressureDataSizeThreshold>1 GB</backPressureDataSizeThreshold>
            <backPressureObjectThreshold>10000</backPressureObjectThreshold>
            <bends>
                <x>1390.325927734375</x>
                <y>484.7613220214844</y>
            </bends>
            <bends>
                <x>1390.325927734375</x>
                <y>580.7613220214844</y>
            </bends>
            <destination>
                <groupId>dc5acc8d-93ee-379f-0000-000000000000</groupId>
                <id>e98ca78d-9049-3cf5-0000-000000000000</id>
                <type>PROCESSOR</type>
            </destination>
            <flowFileExpiration>0 sec</flowFileExpiration>
            <labelIndex>0</labelIndex>
            <loadBalanceCompression>DO_NOT_COMPRESS</loadBalanceCompression>
            <loadBalancePartitionAttribute></loadBalancePartitionAttribute>
            <loadBalanceStatus>LOAD_BALANCE_NOT_CONFIGURED</loadBalanceStatus>
            <loadBalanceStrategy>DO_NOT_LOAD_BALANCE</loadBalanceStrategy>
            <name></name>
            <selectedRelationships>success</selectedRelationships>
            <source>
                <groupId>dc5acc8d-93ee-379f-0000-000000000000</groupId>
                <id>ac617fab-2f7b-3562-0000-000000000000</id>
                <type>PROCESSOR</type>
            </source>
            <zIndex>0</zIndex>
        </connections>
        <connections>
            <id>69fd84b9-beca-3c03-0000-000000000000</id>
            <parentGroupId>dc5acc8d-93ee-379f-0000-000000000000</parentGroupId>
            <backPressureDataSizeThreshold>1 GB</backPressureDataSizeThreshold>
            <backPressureObjectThreshold>10000</backPressureObjectThreshold>
            <bends>
                <x>2136.0</x>
                <y>688.0</y>
            </bends>
            <bends>
                <x>2134.325927734375</x>
                <y>1108.7613220214844</y>
            </bends>
            <destination>
                <groupId>dc5acc8d-93ee-379f-0000-000000000000</groupId>
                <id>5fffd6c7-0d51-3b61-0000-000000000000</id>
                <type>PROCESSOR</type>
            </destination>
            <flowFileExpiration>0 sec</flowFileExpiration>
            <labelIndex>0</labelIndex>
            <loadBalanceCompression>DO_NOT_COMPRESS</loadBalanceCompression>
            <loadBalancePartitionAttribute></loadBalancePartitionAttribute>
            <loadBalanceStatus>LOAD_BALANCE_NOT_CONFIGURED</loadBalanceStatus>
            <loadBalanceStrategy>DO_NOT_LOAD_BALANCE</loadBalanceStrategy>
            <name></name>
            <selectedRelationships>success</selectedRelationships>
            <source>
                <groupId>dc5acc8d-93ee-379f-0000-000000000000</groupId>
                <id>7cbf49b7-7c76-3c98-0000-000000000000</id>
                <type>PROCESSOR</type>
            </source>
            <zIndex>0</zIndex>
        </connections>
        <connections>
            <id>6e3b9b55-70b6-3295-0000-000000000000</id>
            <parentGroupId>dc5acc8d-93ee-379f-0000-000000000000</parentGroupId>
            <backPressureDataSizeThreshold>1 GB</backPressureDataSizeThreshold>
            <backPressureObjectThreshold>10000</backPressureObjectThreshold>
            <bends>
                <x>176.0</x>
                <y>688.0</y>
            </bends>
            <bends>
                <x>177.22280883789062</x>
                <y>1104.0</y>
            </bends>
            <destination>
                <groupId>dc5acc8d-93ee-379f-0000-000000000000</groupId>
                <id>5fffd6c7-0d51-3b61-0000-000000000000</id>
                <type>PROCESSOR</type>
            </destination>
            <flowFileExpiration>0 sec</flowFileExpiration>
            <labelIndex>0</labelIndex>
            <loadBalanceCompression>DO_NOT_COMPRESS</loadBalanceCompression>
            <loadBalancePartitionAttribute></loadBalancePartitionAttribute>
            <loadBalanceStatus>LOAD_BALANCE_NOT_CONFIGURED</loadBalanceStatus>
            <loadBalanceStrategy>DO_NOT_LOAD_BALANCE</loadBalanceStrategy>
            <name></name>
            <selectedRelationships>success</selectedRelationships>
            <source>
                <groupId>dc5acc8d-93ee-379f-0000-000000000000</groupId>
                <id>0eec0ada-d038-3c65-0000-000000000000</id>
                <type>PROCESSOR</type>
            </source>
            <zIndex>0</zIndex>
        </connections>
        <connections>
            <id>7716880f-560d-3d0e-0000-000000000000</id>
            <parentGroupId>dc5acc8d-93ee-379f-0000-000000000000</parentGroupId>
            <backPressureDataSizeThreshold>1 GB</backPressureDataSizeThreshold>
            <backPressureObjectThreshold>10000</backPressureObjectThreshold>
            <bends>
                <x>537.2228088378906</x>
                <y>192.0</y>
            </bends>
            <bends>
                <x>537.2228088378906</x>
                <y>288.0</y>
            </bends>
            <destination>
                <groupId>dc5acc8d-93ee-379f-0000-000000000000</groupId>
                <id>7ab99d9a-b4c5-3099-0000-000000000000</id>
                <type>PROCESSOR</type>
            </destination>
            <flowFileExpiration>0 sec</flowFileExpiration>
            <labelIndex>1</labelIndex>
            <loadBalanceCompression>DO_NOT_COMPRESS</loadBalanceCompression>
            <loadBalancePartitionAttribute></loadBalancePartitionAttribute>
            <loadBalanceStatus>LOAD_BALANCE_NOT_CONFIGURED</loadBalanceStatus>
            <loadBalanceStrategy>DO_NOT_LOAD_BALANCE</loadBalanceStrategy>
            <name></name>
            <selectedRelationships>nvrjs segmentRequest</selectedRelationships>
            <source>
                <groupId>dc5acc8d-93ee-379f-0000-000000000000</groupId>
                <id>7cda1f97-03d1-3e7a-0000-000000000000</id>
                <type>PROCESSOR</type>
            </source>
            <zIndex>0</zIndex>
        </connections>
        <connections>
            <id>7c8f7d60-95a1-3156-0000-000000000000</id>
            <parentGroupId>dc5acc8d-93ee-379f-0000-000000000000</parentGroupId>
            <backPressureDataSizeThreshold>1 GB</backPressureDataSizeThreshold>
            <backPressureObjectThreshold>10000</backPressureObjectThreshold>
            <bends>
                <x>177.22280883789062</x>
                <y>192.0</y>
            </bends>
            <bends>
                <x>177.22280883789062</x>
                <y>288.0</y>
            </bends>
            <destination>
                <groupId>dc5acc8d-93ee-379f-0000-000000000000</groupId>
                <id>84333620-775e-3326-0000-000000000000</id>
                <type>PROCESSOR</type>
            </destination>
            <flowFileExpiration>0 sec</flowFileExpiration>
            <labelIndex>1</labelIndex>
            <loadBalanceCompression>DO_NOT_COMPRESS</loadBalanceCompression>
            <loadBalancePartitionAttribute></loadBalancePartitionAttribute>
            <loadBalanceStatus>LOAD_BALANCE_NOT_CONFIGURED</loadBalanceStatus>
            <loadBalanceStrategy>DO_NOT_LOAD_BALANCE</loadBalanceStrategy>
            <name></name>
            <selectedRelationships>nvrjs eventRequest</selectedRelationships>
            <source>
                <groupId>dc5acc8d-93ee-379f-0000-000000000000</groupId>
                <id>7cda1f97-03d1-3e7a-0000-000000000000</id>
                <type>PROCESSOR</type>
            </source>
            <zIndex>0</zIndex>
        </connections>
        <connections>
            <id>7ec70f99-dd0b-31ee-0000-000000000000</id>
            <parentGroupId>dc5acc8d-93ee-379f-0000-000000000000</parentGroupId>
            <backPressureDataSizeThreshold>1 GB</backPressureDataSizeThreshold>
            <backPressureObjectThreshold>10000</backPressureObjectThreshold>
            <bends>
                <x>1758.325927734375</x>
                <y>188.76132202148438</y>
            </bends>
            <bends>
                <x>1758.325927734375</x>
                <y>284.7613220214844</y>
            </bends>
            <destination>
                <groupId>dc5acc8d-93ee-379f-0000-000000000000</groupId>
                <id>9d5088e6-bb8e-3eef-0000-000000000000</id>
                <type>PROCESSOR</type>
            </destination>
            <flowFileExpiration>0 sec</flowFileExpiration>
            <labelIndex>1</labelIndex>
            <loadBalanceCompression>DO_NOT_COMPRESS</loadBalanceCompression>
            <loadBalancePartitionAttribute></loadBalancePartitionAttribute>
            <loadBalanceStatus>LOAD_BALANCE_NOT_CONFIGURED</loadBalanceStatus>
            <loadBalanceStrategy>DO_NOT_LOAD_BALANCE</loadBalanceStrategy>
            <name></name>
            <selectedRelationships>stream online</selectedRelationships>
            <source>
                <groupId>dc5acc8d-93ee-379f-0000-000000000000</groupId>
                <id>7cda1f97-03d1-3e7a-0000-000000000000</id>
                <type>PROCESSOR</type>
            </source>
            <zIndex>0</zIndex>
        </connections>
        <connections>
            <id>7f420442-bb62-3f89-0000-000000000000</id>
            <parentGroupId>dc5acc8d-93ee-379f-0000-000000000000</parentGroupId>
            <backPressureDataSizeThreshold>1 GB</backPressureDataSizeThreshold>
            <backPressureObjectThreshold>10000</backPressureObjectThreshold>
            <bends>
                <x>1760.0</x>
                <y>688.0</y>
            </bends>
            <bends>
                <x>1758.325927734375</x>
                <y>1108.7613220214844</y>
            </bends>
            <destination>
                <groupId>dc5acc8d-93ee-379f-0000-000000000000</groupId>
                <id>5fffd6c7-0d51-3b61-0000-000000000000</id>
                <type>PROCESSOR</type>
            </destination>
            <flowFileExpiration>0 sec</flowFileExpiration>
            <labelIndex>0</labelIndex>
            <loadBalanceCompression>DO_NOT_COMPRESS</loadBalanceCompression>
            <loadBalancePartitionAttribute></loadBalancePartitionAttribute>
            <loadBalanceStatus>LOAD_BALANCE_NOT_CONFIGURED</loadBalanceStatus>
            <loadBalanceStrategy>DO_NOT_LOAD_BALANCE</loadBalanceStrategy>
            <name></name>
            <selectedRelationships>success</selectedRelationships>
            <source>
                <groupId>dc5acc8d-93ee-379f-0000-000000000000</groupId>
                <id>e98ca78d-9049-3cf5-0000-000000000000</id>
                <type>PROCESSOR</type>
            </source>
            <zIndex>0</zIndex>
        </connections>
        <connections>
            <id>8677d467-95a5-3300-0000-000000000000</id>
            <parentGroupId>dc5acc8d-93ee-379f-0000-000000000000</parentGroupId>
            <backPressureDataSizeThreshold>1 GB</backPressureDataSizeThreshold>
            <backPressureObjectThreshold>10000</backPressureObjectThreshold>
            <destination>
                <groupId>dc5acc8d-93ee-379f-0000-000000000000</groupId>
                <id>e98ca78d-9049-3cf5-0000-000000000000</id>
                <type>PROCESSOR</type>
            </destination>
            <flowFileExpiration>0 sec</flowFileExpiration>
            <labelIndex>1</labelIndex>
            <loadBalanceCompression>DO_NOT_COMPRESS</loadBalanceCompression>
            <loadBalancePartitionAttribute></loadBalancePartitionAttribute>
            <loadBalanceStatus>LOAD_BALANCE_NOT_CONFIGURED</loadBalanceStatus>
            <loadBalanceStrategy>DO_NOT_LOAD_BALANCE</loadBalanceStrategy>
            <name></name>
            <selectedRelationships>success</selectedRelationships>
            <source>
                <groupId>dc5acc8d-93ee-379f-0000-000000000000</groupId>
                <id>9d5088e6-bb8e-3eef-0000-000000000000</id>
                <type>PROCESSOR</type>
            </source>
            <zIndex>0</zIndex>
        </connections>
        <connections>
            <id>95173dea-25ae-35a1-0000-000000000000</id>
            <parentGroupId>dc5acc8d-93ee-379f-0000-000000000000</parentGroupId>
            <backPressureDataSizeThreshold>1 GB</backPressureDataSizeThreshold>
            <backPressureObjectThreshold>10000</backPressureObjectThreshold>
            <bends>
                <x>1392.0</x>
                <y>192.0</y>
            </bends>
            <bends>
                <x>1392.0</x>
                <y>280.0</y>
            </bends>
            <destination>
                <groupId>dc5acc8d-93ee-379f-0000-000000000000</groupId>
                <id>ac617fab-2f7b-3562-0000-000000000000</id>
                <type>PROCESSOR</type>
            </destination>
            <flowFileExpiration>0 sec</flowFileExpiration>
            <labelIndex>1</labelIndex>
            <loadBalanceCompression>DO_NOT_COMPRESS</loadBalanceCompression>
            <loadBalancePartitionAttribute></loadBalancePartitionAttribute>
            <loadBalanceStatus>LOAD_BALANCE_NOT_CONFIGURED</loadBalanceStatus>
            <loadBalanceStrategy>DO_NOT_LOAD_BALANCE</loadBalanceStrategy>
            <name></name>
            <selectedRelationships>stream offline</selectedRelationships>
            <source>
                <groupId>dc5acc8d-93ee-379f-0000-000000000000</groupId>
                <id>7cda1f97-03d1-3e7a-0000-000000000000</id>
                <type>PROCESSOR</type>
            </source>
            <zIndex>0</zIndex>
        </connections>
        <connections>
            <id>96502ef1-20f1-36f9-0000-000000000000</id>
            <parentGroupId>dc5acc8d-93ee-379f-0000-000000000000</parentGroupId>
            <backPressureDataSizeThreshold>1 GB</backPressureDataSizeThreshold>
            <backPressureObjectThreshold>10000</backPressureObjectThreshold>
            <destination>
                <groupId>dc5acc8d-93ee-379f-0000-000000000000</groupId>
                <id>0eec0ada-d038-3c65-0000-000000000000</id>
                <type>PROCESSOR</type>
            </destination>
            <flowFileExpiration>0 sec</flowFileExpiration>
            <labelIndex>1</labelIndex>
            <loadBalanceCompression>DO_NOT_COMPRESS</loadBalanceCompression>
            <loadBalancePartitionAttribute></loadBalancePartitionAttribute>
            <loadBalanceStatus>LOAD_BALANCE_NOT_CONFIGURED</loadBalanceStatus>
            <loadBalanceStrategy>DO_NOT_LOAD_BALANCE</loadBalanceStrategy>
            <name></name>
            <selectedRelationships>success</selectedRelationships>
            <source>
                <groupId>dc5acc8d-93ee-379f-0000-000000000000</groupId>
                <id>84333620-775e-3326-0000-000000000000</id>
                <type>PROCESSOR</type>
            </source>
            <zIndex>0</zIndex>
        </connections>
        <connections>
            <id>b2e2c567-5fd2-3166-0000-000000000000</id>
            <parentGroupId>dc5acc8d-93ee-379f-0000-000000000000</parentGroupId>
            <backPressureDataSizeThreshold>1 GB</backPressureDataSizeThreshold>
            <backPressureObjectThreshold>10000</backPressureObjectThreshold>
            <bends>
                <x>539.1546936035156</x>
                <y>487.06019592285156</y>
            </bends>
            <bends>
                <x>537.2228088378906</x>
                <y>1104.0</y>
            </bends>
            <destination>
                <groupId>dc5acc8d-93ee-379f-0000-000000000000</groupId>
                <id>5fffd6c7-0d51-3b61-0000-000000000000</id>
                <type>PROCESSOR</type>
            </destination>
            <flowFileExpiration>0 sec</flowFileExpiration>
            <labelIndex>0</labelIndex>
            <loadBalanceCompression>DO_NOT_COMPRESS</loadBalanceCompression>
            <loadBalancePartitionAttribute></loadBalancePartitionAttribute>
            <loadBalanceStatus>LOAD_BALANCE_NOT_CONFIGURED</loadBalanceStatus>
            <loadBalanceStrategy>DO_NOT_LOAD_BALANCE</loadBalanceStrategy>
            <name></name>
            <selectedRelationships>success</selectedRelationships>
            <source>
                <groupId>dc5acc8d-93ee-379f-0000-000000000000</groupId>
                <id>7ab99d9a-b4c5-3099-0000-000000000000</id>
                <type>PROCESSOR</type>
            </source>
            <zIndex>0</zIndex>
        </connections>
        <connections>
            <id>cfc886b7-564e-34a4-0000-000000000000</id>
            <parentGroupId>dc5acc8d-93ee-379f-0000-000000000000</parentGroupId>
            <backPressureDataSizeThreshold>1 GB</backPressureDataSizeThreshold>
            <backPressureObjectThreshold>10000</backPressureObjectThreshold>
            <destination>
                <groupId>dc5acc8d-93ee-379f-0000-000000000000</groupId>
                <id>7cbf49b7-7c76-3c98-0000-000000000000</id>
                <type>PROCESSOR</type>
            </destination>
            <flowFileExpiration>0 sec</flowFileExpiration>
            <labelIndex>1</labelIndex>
            <loadBalanceCompression>DO_NOT_COMPRESS</loadBalanceCompression>
            <loadBalancePartitionAttribute></loadBalancePartitionAttribute>
            <loadBalanceStatus>LOAD_BALANCE_NOT_CONFIGURED</loadBalanceStatus>
            <loadBalanceStrategy>DO_NOT_LOAD_BALANCE</loadBalanceStrategy>
            <name></name>
            <selectedRelationships>success</selectedRelationships>
            <source>
                <groupId>dc5acc8d-93ee-379f-0000-000000000000</groupId>
                <id>5a64ffa2-747d-35e3-0000-000000000000</id>
                <type>PROCESSOR</type>
            </source>
            <zIndex>0</zIndex>
        </connections>
        <connections>
            <id>e0d38222-e497-3dde-0000-000000000000</id>
            <parentGroupId>dc5acc8d-93ee-379f-0000-000000000000</parentGroupId>
            <backPressureDataSizeThreshold>1 GB</backPressureDataSizeThreshold>
            <backPressureObjectThreshold>10000</backPressureObjectThreshold>
            <bends>
                <x>944.0</x>
                <y>88.0</y>
            </bends>
            <destination>
                <groupId>dc5acc8d-93ee-379f-0000-000000000000</groupId>
                <id>7cda1f97-03d1-3e7a-0000-000000000000</id>
                <type>PROCESSOR</type>
            </destination>
            <flowFileExpiration>0 sec</flowFileExpiration>
            <labelIndex>0</labelIndex>
            <loadBalanceCompression>DO_NOT_COMPRESS</loadBalanceCompression>
            <loadBalancePartitionAttribute></loadBalancePartitionAttribute>
            <loadBalanceStatus>LOAD_BALANCE_NOT_CONFIGURED</loadBalanceStatus>
            <loadBalanceStrategy>DO_NOT_LOAD_BALANCE</loadBalanceStrategy>
            <name></name>
            <source>
                <groupId>dc5acc8d-93ee-379f-0000-000000000000</groupId>
                <id>fe125d84-9420-31c9-0000-000000000000</id>
                <type>INPUT_PORT</type>
            </source>
            <zIndex>0</zIndex>
        </connections>
        <controllerServices>
            <id>0824b127-82f0-39f4-0000-000000000000</id>
            <parentGroupId>dc5acc8d-93ee-379f-0000-000000000000</parentGroupId>
            <bulletinLevel>WARN</bulletinLevel>
            <bundle>
                <artifact>nifi-record-serialization-services-nar</artifact>
                <group>org.apache.nifi</group>
                <version>1.23.2</version>
            </bundle>
            <comments></comments>
            <descriptors>
                <entry>
                    <key>max-cache-size</key>
                    <value>
                        <name>max-cache-size</name>
                    </value>
                </entry>
            </descriptors>
            <name>VolatileSchemaCache</name>
            <persistsState>false</persistsState>
            <properties>
                <entry>
                    <key>max-cache-size</key>
                    <value>100</value>
                </entry>
            </properties>
            <state>ENABLED</state>
            <type>org.apache.nifi.schema.inference.VolatileSchemaCache</type>
        </controllerServices>
        <controllerServices>
            <id>37a8a0dc-0d8b-3140-0000-000000000000</id>
            <parentGroupId>dc5acc8d-93ee-379f-0000-000000000000</parentGroupId>
            <bulletinLevel>WARN</bulletinLevel>
            <bundle>
                <artifact>nifi-record-serialization-services-nar</artifact>
                <group>org.apache.nifi</group>
                <version>1.23.2</version>
            </bundle>
            <comments></comments>
            <descriptors>
                <entry>
                    <key>schema-access-strategy</key>
                    <value>
                        <name>schema-access-strategy</name>
                    </value>
                </entry>
                <entry>
                    <key>schema-registry</key>
                    <value>
                        <dependencies>
                            <dependentValues>confluent-encoded</dependentValues>
                            <dependentValues>schema-name</dependentValues>
                            <dependentValues>hwx-schema-ref-attributes</dependentValues>
                            <dependentValues>hwx-content-encoded-schema</dependentValues>
                            <propertyName>schema-access-strategy</propertyName>
                        </dependencies>
                        <identifiesControllerService>org.apache.nifi.schemaregistry.services.SchemaRegistry</identifiesControllerService>
                        <name>schema-registry</name>
                    </value>
                </entry>
                <entry>
                    <key>schema-name</key>
                    <value>
                        <dependencies>
                            <dependentValues>schema-name</dependentValues>
                            <propertyName>schema-access-strategy</propertyName>
                        </dependencies>
                        <name>schema-name</name>
                    </value>
                </entry>
                <entry>
                    <key>schema-version</key>
                    <value>
                        <dependencies>
                            <dependentValues>schema-name</dependentValues>
                            <propertyName>schema-access-strategy</propertyName>
                        </dependencies>
                        <name>schema-version</name>
                    </value>
                </entry>
                <entry>
                    <key>schema-branch</key>
                    <value>
                        <dependencies>
                            <dependentValues>schema-name</dependentValues>
                            <propertyName>schema-access-strategy</propertyName>
                        </dependencies>
                        <name>schema-branch</name>
                    </value>
                </entry>
                <entry>
                    <key>schema-text</key>
                    <value>
                        <dependencies>
                            <dependentValues>schema-text-property</dependentValues>
                            <propertyName>schema-access-strategy</propertyName>
                        </dependencies>
                        <name>schema-text</name>
                    </value>
                </entry>
                <entry>
                    <key>schema-inference-cache</key>
                    <value>
                        <dependencies>
                            <dependentValues>infer-schema</dependentValues>
                            <propertyName>schema-access-strategy</propertyName>
                        </dependencies>
                        <identifiesControllerService>org.apache.nifi.serialization.RecordSchemaCacheService</identifiesControllerService>
                        <name>schema-inference-cache</name>
                    </value>
                </entry>
                <entry>
                    <key>starting-field-strategy</key>
                    <value>
                        <name>starting-field-strategy</name>
                    </value>
                </entry>
                <entry>
                    <key>starting-field-name</key>
                    <value>
                        <dependencies>
                            <dependentValues>NESTED_FIELD</dependentValues>
                            <propertyName>starting-field-strategy</propertyName>
                        </dependencies>
                        <name>starting-field-name</name>
                    </value>
                </entry>
                <entry>
                    <key>schema-application-strategy</key>
                    <value>
                        <dependencies>
                            <dependentValues>confluent-encoded</dependentValues>
                            <dependentValues>schema-name</dependentValues>
                            <dependentValues>schema-text-property</dependentValues>
                            <dependentValues>hwx-schema-ref-attributes</dependentValues>
                            <dependentValues>hwx-content-encoded-schema</dependentValues>
                            <propertyName>schema-access-strategy</propertyName>
                        </dependencies>
                        <dependencies>
                            <dependentValues>NESTED_FIELD</dependentValues>
                            <propertyName>starting-field-strategy</propertyName>
                        </dependencies>
                        <name>schema-application-strategy</name>
                    </value>
                </entry>
                <entry>
                    <key>Date Format</key>
                    <value>
                        <name>Date Format</name>
                    </value>
                </entry>
                <entry>
                    <key>Time Format</key>
                    <value>
                        <name>Time Format</name>
                    </value>
                </entry>
                <entry>
                    <key>Timestamp Format</key>
                    <value>
                        <name>Timestamp Format</name>
                    </value>
                </entry>
            </descriptors>
            <name>JsonTreeReader</name>